Circuit: * C:\Users\ahmet\OneDrive\Belgeler\EE464_term_project_Social_Isiolation\Flyback_converter_AHS\8316.asc

Limiting rise time of source v1 to 0.1
Limiting fall time of source v1 to 0.1
WARNING: Node N001 is floating.

WARNING: Less than two connections to node OUT.  This node is used by RLOAD.
WARNING: Less than two connections to node N002.  This node is used by V1.
WARNING: Less than two connections to node N001.  This node is used by V1.
Direct Newton iteration for .op point succeeded.
Ignoring empty pin current: Ix(endoscreset:in)
Ignoring empty pin current: Ix(endoscreset:out)
Ignoring empty pin current: Ix(endleb:in)
Ignoring empty pin current: Ix(endleb:out)
Ignoring empty pin current: Ix(maxontime:in)
Ignoring empty pin current: Ix(maxontime:out)
Ignoring empty pin current: Ix(dprimeest:in)
Ignoring empty pin current: Ix(dprimeest:out)
Ignoring empty pin current: Ix(enddcmblank:in)
Ignoring empty pin current: Ix(enddcmblank:out)
Ignoring empty pin current: Ix(endsample:in)
Ignoring empty pin current: Ix(endsample:out)
Ignoring empty pin current: Ix(backuposc:in)
Ignoring empty pin current: Ix(backuposc:out)
Ignoring empty pin current: Ix(endreset:in)
Ignoring empty pin current: Ix(endreset:out)
Ignoring empty pin current: Ix(sleep:in)
Ignoring empty pin current: Ix(sleep:out)
Ignoring empty pin current: Ix(u1:2)
Ignoring empty pin current: Ix(u1:3)
Ignoring empty pin current: Ix(u1:4)
Ignoring empty pin current: Ix(u1:5)
Ignoring empty pin current: Ix(u1:6)
Ignoring empty pin current: Ix(u1:7)
Ignoring empty pin current: Ix(endoscreset:in)
Ignoring empty pin current: Ix(endoscreset:out)
Ignoring empty pin current: Ix(endleb:in)
Ignoring empty pin current: Ix(endleb:out)
Ignoring empty pin current: Ix(maxontime:in)
Ignoring empty pin current: Ix(maxontime:out)
Ignoring empty pin current: Ix(dprimeest:in)
Ignoring empty pin current: Ix(dprimeest:out)
Ignoring empty pin current: Ix(enddcmblank:in)
Ignoring empty pin current: Ix(enddcmblank:out)
Ignoring empty pin current: Ix(endsample:in)
Ignoring empty pin current: Ix(endsample:out)
Ignoring empty pin current: Ix(backuposc:in)
Ignoring empty pin current: Ix(backuposc:out)
Ignoring empty pin current: Ix(endreset:in)
Ignoring empty pin current: Ix(endreset:out)
Ignoring empty pin current: Ix(sleep:in)
Ignoring empty pin current: Ix(sleep:out)
Ignoring empty pin current: Ix(u1:2)
Ignoring empty pin current: Ix(u1:3)
Ignoring empty pin current: Ix(u1:4)
Ignoring empty pin current: Ix(u1:5)
Ignoring empty pin current: Ix(u1:6)
Ignoring empty pin current: Ix(u1:7)

Date: Mon Apr 26 16:24:00 2021
Total elapsed time: 235.166 seconds.

tnom = 27
temp = 27
method = modified trap
totiter = 18406575
traniter = 18406530
tranpoints = 4918460
accept = 3695401
rejected = 1223059
matrix size = 55
fillins = 25
solver = Normal
Matrix Compiler1: 3.35 KB object code size  1.1/0.6/[0.2]
Matrix Compiler2: 4.12 KB object code size  0.5/0.8/[0.3]

