Circuit: * C:\Users\ahmet\OneDrive\Belgeler\EE464_term_project_Social_Isiolation\Flyback_converter_AHS\8316.asc

Limiting fall time of source v1 to 0.0999999
Limiting fall time of source vin to 0.0999999
Instance "m:u3:r": Length shorter than recommended for a level 1 MOSFET.
Instance "m:u3:r": Width narrower than recommended for a level 1 MOSFET.
Instance "m:u3:1": Width narrower than recommended for a level 3 MOSFET.
Direct Newton iteration failed to find .op point.  (Use ".option noopiter" to skip.)
Starting Gmin stepping
Gmin = 10
Gmin = 1.07374
Gmin = 0.115292
Gmin = 0.0123794
Gmin = 0.00132923
Gmin = 0.000142725
Gmin = 1.5325e-005
Gmin = 1.6455e-006
Gmin = 1.76685e-007
vernier = 0.5
vernier = 0.25
Gmin = 8.87285e-008
vernier = 0.333333
vernier = 0.444444
Gmin = 3.76608e-008
vernier = 0.592592
vernier = 0.790123
Gmin = 1.00079e-008
vernier = 1
Gmin = 1.33156e-009
Gmin = 1.42975e-010
Gmin = 1.53518e-011
Gmin = 1.64839e-012
Gmin = 1.76994e-013
Gmin = 0
Gmin stepping succeeded in finding the operating point.

Ignoring empty pin current: Ix(endoscreset:in)
Ignoring empty pin current: Ix(endoscreset:out)
Ignoring empty pin current: Ix(endleb:in)
Ignoring empty pin current: Ix(endleb:out)
Ignoring empty pin current: Ix(maxontime:in)
Ignoring empty pin current: Ix(maxontime:out)
Ignoring empty pin current: Ix(dprimeest:in)
Ignoring empty pin current: Ix(dprimeest:out)
Ignoring empty pin current: Ix(enddcmblank:in)
Ignoring empty pin current: Ix(enddcmblank:out)
Ignoring empty pin current: Ix(endsample:in)
Ignoring empty pin current: Ix(endsample:out)
Ignoring empty pin current: Ix(backuposc:in)
Ignoring empty pin current: Ix(backuposc:out)
Ignoring empty pin current: Ix(endreset:in)
Ignoring empty pin current: Ix(endreset:out)
Ignoring empty pin current: Ix(sleep:in)
Ignoring empty pin current: Ix(sleep:out)
Ignoring empty pin current: Ix(u1:2)
Ignoring empty pin current: Ix(u1:3)
Ignoring empty pin current: Ix(u1:4)
Ignoring empty pin current: Ix(u1:5)
Ignoring empty pin current: Ix(u1:6)
Ignoring empty pin current: Ix(u1:7)
Ignoring empty pin current: Ix(endoscreset:in)
Ignoring empty pin current: Ix(endoscreset:out)
Ignoring empty pin current: Ix(endleb:in)
Ignoring empty pin current: Ix(endleb:out)
Ignoring empty pin current: Ix(maxontime:in)
Ignoring empty pin current: Ix(maxontime:out)
Ignoring empty pin current: Ix(dprimeest:in)
Ignoring empty pin current: Ix(dprimeest:out)
Ignoring empty pin current: Ix(enddcmblank:in)
Ignoring empty pin current: Ix(enddcmblank:out)
Ignoring empty pin current: Ix(endsample:in)
Ignoring empty pin current: Ix(endsample:out)
Ignoring empty pin current: Ix(backuposc:in)
Ignoring empty pin current: Ix(backuposc:out)
Ignoring empty pin current: Ix(endreset:in)
Ignoring empty pin current: Ix(endreset:out)
Ignoring empty pin current: Ix(sleep:in)
Ignoring empty pin current: Ix(sleep:out)
Ignoring empty pin current: Ix(u1:2)
Ignoring empty pin current: Ix(u1:3)
Ignoring empty pin current: Ix(u1:4)
Ignoring empty pin current: Ix(u1:5)
Ignoring empty pin current: Ix(u1:6)
Ignoring empty pin current: Ix(u1:7)

Date: Wed Apr 28 23:17:06 2021
Total elapsed time: 1613.484 seconds.

tnom = 27
temp = 27
method = modified trap
totiter = 67097617
traniter = 67096835
tranpoints = 31081929
accept = 21379076
rejected = 9702853
matrix size = 69
fillins = 33
solver = Normal
Thread vector: 38.6/24.9[2] 5.7/3.8[2] 3.3/5.5[1] 0.3/2.8[1]  2592/500
Matrix Compiler1: 5.03 KB object code size  1.0/0.6/[0.3]
Matrix Compiler2: 5.56 KB object code size  1.0/1.5/[0.4]

