Circuit: * C:\Users\Ali Belli\Documents\EE464_term_project_Social_Isolation\Flyback_converter_AB\8316.asc

Limiting fall time of source v1 to 0.0999999
Limiting fall time of source vin to 0.0999999
Instance "m:u2:r": Length shorter than recommended for a level 1 MOSFET.
Instance "m:u2:r": Width narrower than recommended for a level 1 MOSFET.
Instance "m:u2:1": Width narrower than recommended for a level 3 MOSFET.
Direct Newton iteration failed to find .op point.  (Use ".option noopiter" to skip.)
Starting Gmin stepping
Gmin = 10
Gmin = 1.07374
Gmin = 0.115292
Gmin = 0.0123794
Gmin = 0.00132923
Gmin = 0.000142725
Gmin = 1.5325e-005
Gmin = 1.6455e-006
Gmin = 1.76685e-007
vernier = 0.5
vernier = 0.25
Gmin = 8.87285e-008
vernier = 0.333333
vernier = 0.444444
Gmin = 3.76608e-008
vernier = 0.592592
vernier = 0.790123
Gmin = 1.00079e-008
vernier = 1
Gmin = 1.33156e-009
Gmin = 1.42975e-010
Gmin = 1.53518e-011
Gmin = 1.64839e-012
Gmin = 1.76994e-013
Gmin = 0
Gmin stepping succeeded in finding the operating point.

Ignoring empty pin current: Ix(endoscreset:in)
Ignoring empty pin current: Ix(endoscreset:out)
Ignoring empty pin current: Ix(endleb:in)
Ignoring empty pin current: Ix(endleb:out)
Ignoring empty pin current: Ix(maxontime:in)
Ignoring empty pin current: Ix(maxontime:out)
Ignoring empty pin current: Ix(dprimeest:in)
Ignoring empty pin current: Ix(dprimeest:out)
Ignoring empty pin current: Ix(enddcmblank:in)
Ignoring empty pin current: Ix(enddcmblank:out)
Ignoring empty pin current: Ix(endsample:in)
Ignoring empty pin current: Ix(endsample:out)
Ignoring empty pin current: Ix(backuposc:in)
Ignoring empty pin current: Ix(backuposc:out)
Ignoring empty pin current: Ix(endreset:in)
Ignoring empty pin current: Ix(endreset:out)
Ignoring empty pin current: Ix(sleep:in)
Ignoring empty pin current: Ix(sleep:out)
Ignoring empty pin current: Ix(u1:2)
Ignoring empty pin current: Ix(u1:3)
Ignoring empty pin current: Ix(u1:4)
Ignoring empty pin current: Ix(u1:5)
Ignoring empty pin current: Ix(u1:6)
Ignoring empty pin current: Ix(u1:7)
Ignoring empty pin current: Ix(endoscreset:in)
Ignoring empty pin current: Ix(endoscreset:out)
Ignoring empty pin current: Ix(endleb:in)
Ignoring empty pin current: Ix(endleb:out)
Ignoring empty pin current: Ix(maxontime:in)
Ignoring empty pin current: Ix(maxontime:out)
Ignoring empty pin current: Ix(dprimeest:in)
Ignoring empty pin current: Ix(dprimeest:out)
Ignoring empty pin current: Ix(enddcmblank:in)
Ignoring empty pin current: Ix(enddcmblank:out)
Ignoring empty pin current: Ix(endsample:in)
Ignoring empty pin current: Ix(endsample:out)
Ignoring empty pin current: Ix(backuposc:in)
Ignoring empty pin current: Ix(backuposc:out)
Ignoring empty pin current: Ix(endreset:in)
Ignoring empty pin current: Ix(endreset:out)
Ignoring empty pin current: Ix(sleep:in)
Ignoring empty pin current: Ix(sleep:out)
Ignoring empty pin current: Ix(u1:2)
Ignoring empty pin current: Ix(u1:3)
Ignoring empty pin current: Ix(u1:4)
Ignoring empty pin current: Ix(u1:5)
Ignoring empty pin current: Ix(u1:6)
Ignoring empty pin current: Ix(u1:7)
Heightened Def Con from 0.0176939 to 0.0176939

Date: Wed Apr 28 18:17:34 2021
Total elapsed time: 455.395 seconds.

tnom = 27
temp = 27
method = modified trap
totiter = 30682013
traniter = 30681231
tranpoints = 13087054
accept = 9141272
rejected = 3945783
matrix size = 69
fillins = 35
solver = Normal
Thread vector: 9.9/7.7[3] 2.6/2.5[1] 2.4/1.9[3] 0.2/2.1[1]  2592/500
Matrix Compiler1: 5.18 KB object code size  1.0/0.5/[0.3]
Matrix Compiler2: 5.59 KB object code size  1.9/0.8/[0.4]

